Measurement: Raman, 532 nm, unoriented, Raman Data Processed
Mineral: Beidellite
Rruff sample: R070244
Ideal chemistry: (Na,Ca)_0.3_Al_2_(Si,Al)_4_O_10_(OH)_2_nH_2_O
Locality: Fort Sandeman, Pakistan
Source: Michael Scott
Description: Matted fibrous tan crystals (mountain leather)
Raman shift (cm-1)	intensity
120.253	0
123.627	177.565
127.002	1656.96
130.377	5812.1
133.752	11994.1
137.127	19245.6
140.502	23555.1
143.876	25291.3
147.251	26939.5
150.626	29686.7
154.001	32804.4
157.376	33456.2
160.75	32428
164.125	31793
167.5	31598.5
170.875	31324.1
174.25	30261.3
177.625	29020.6
180.999	26835.9
184.374	25094.5
187.749	23724.2
191.124	21917.2
194.499	20308.3
197.874	18826.5
201.248	17241.6
204.623	15705.4
207.998	14219.9
211.373	12913.2
214.748	11634.2
218.122	10630.1
221.497	9418.94
224.872	8197.02
228.247	7248.41
231.622	6482.58
234.996	5114.97
238.371	4522
241.746	3884.67
245.121	2932.03
248.496	2600.98
251.871	2150.27
255.245	1313.28
258.62	1323.95
261.995	1188.7
265.37	681.344
268.745	420.234
272.12	193.797
275.494	255.5
278.869	138.031
282.244	111.812
285.619	386.25
288.994	148.422
292.368	318.109
295.743	435.422
299.118	439.188
302.493	254
305.868	515.047
309.243	329.125
312.617	162.859
315.992	112.359
319.367	224.328
322.742	391.422
326.117	491.219
329.491	451.25
332.866	794.688
336.241	1085.83
339.616	847.359
342.991	1181.97
346.365	1546.16
349.74	1440.41
353.115	1524.09
356.49	1341.33
359.865	1454.44
363.24	1649.92
366.614	1525.06
369.989	1487.55
373.364	1391.59
376.739	1338.92
380.114	1376.31
383.488	1307.36
386.863	1235.22
390.238	1490.73
393.613	1336.12
396.988	1151.14
400.363	1043.53
403.737	1343.08
407.112	1208.75
410.487	1434.45
413.862	1198.5
417.237	1291.94
420.611	896.875
423.986	983.328
427.361	1052.89
430.736	743.531
434.111	967.609
437.486	747
440.86	878.406
444.235	606.562
447.61	810.906
450.985	625.203
454.36	610.969
457.735	373.766
461.109	706.422
464.484	574.672
467.859	147.203
471.234	464.625
474.609	612.578
477.983	501.594
481.358	465.578
484.733	501.125
488.108	819.359
491.483	401.203
494.858	749.5
498.232	542.109
501.607	848.172
504.982	392.703
508.357	677.25
511.732	555.062
515.106	274.688
518.481	171
521.856	82.3125
525.231	212.078
528.606	65.2188
531.981	66.1094
535.355	64.5312
538.73	216.484
542.105	65.3594
545.48	165.078
548.855	125.188
552.229	181.141
555.604	4.875
558.979	426.906
562.354	491.75
565.729	589.5
569.104	90.0781
572.478	478.875
575.853	289.953
579.228	197.422
582.603	272.672
585.978	461.234
589.352	404.078
592.727	29.2344
596.102	348.828
599.477	233.172
602.852	700.688
606.227	412.109
609.601	344.656
612.976	490.672
616.351	74.3906
619.726	547.656
623.101	760.375
626.476	827.078
629.85	380.484
633.225	882.156
636.6	893.859
639.975	990.531
643.35	900.969
646.724	1142.34
650.099	1191.78
653.474	1271.64
656.849	1156.22
660.224	1170.84
663.598	1397.08
666.973	757.688
670.348	624.906
673.723	379.125
677.098	794.609
680.472	573.719
683.847	726.844
687.222	364.438
690.597	415.141
693.972	627.672
697.347	217.953
700.721	512.812
704.096	436.391
707.471	477.062
710.846	116.406
714.221	337.609
717.596	304.484
720.97	240.703
724.345	219.516
727.72	248.219
731.095	81.4062
734.47	34.75
737.844	68.25
741.219	360.516
744.594	144.031
747.969	186.891
751.344	80.4219
754.719	274.656
758.093	150.234
761.468	86.0312
764.843	303.453
768.218	357.859
771.593	54.2656
774.967	334.25
778.342	453.062
781.717	189.359
785.092	211.641
788.467	334.047
791.842	198.734
795.216	320.453
798.591	624.953
801.966	499.828
805.341	227.75
808.716	247.797
812.091	495.828
815.465	659.031
818.84	93.5312
822.215	399.672
825.59	58.9531
828.965	96.2344
832.339	92.2812
835.714	272.875
839.089	187.781
842.464	278.297
845.839	796.047
849.213	490.516
852.588	480.641
855.963	461.734
859.338	505.203
862.713	689.219
866.087	527.25
869.462	500.688
872.837	779.625
876.212	819.953
879.587	466.25
882.962	381.047
886.337	514.938
889.711	386.719
893.086	364.078
896.461	85.2812
899.836	155.859
903.211	175.219
906.585	90.2656
909.96	47.4844
913.335	192.641
916.71	15.4062
920.085	54.4062
923.46	248.078
926.834	108.953
930.209	223.281
933.584	153.984
936.959	59.4062
940.334	444.266
943.708	127.891
947.083	398.141
950.458	538.438
953.833	399.594
957.208	813.984
960.582	351.938
963.957	317.031
967.332	180.938
970.707	466.547
974.082	38.7031
977.457	313.25
980.831	357.578
984.206	313.188
987.581	295.969
990.956	534.797
994.331	336.578
997.705	318.656
1001.08	462.234
1004.46	988.719
1007.83	836.625
1011.21	297.547
1014.58	968.031
1017.95	411.672
1021.33	734.875
1024.7	332.094
1028.08	389.516
1031.45	709.109
1034.83	10.375
1038.2	87.5469
1041.58	199.031
1044.95	505.734
1048.33	431.453
1051.7	253.781
1055.08	124.984
1058.45	337.25
1061.83	209.312
1065.2	198.281
1068.58	359.953
1071.95	269.109
1075.33	513.672
1078.7	564.172
1082.08	695.203
1085.45	959.531
1088.83	557.062
1092.2	900.531
1095.58	879.297
1098.95	1086.62
1102.33	441.438
1105.7	809.234
1109.07	644.516
1112.45	283.609
1115.82	347.094
1119.2	536.953
1122.57	309.75
1125.95	572
1129.32	329.125
1132.7	852.172
1136.07	422.438
1139.45	181.469
1142.82	1426.06
1146.2	781.406
1149.57	888.375
1152.95	642.031
1156.32	648.406
1159.7	1089.56
1163.07	737.031
1166.45	822.125
1169.82	888.906
1173.2	508.094
1176.57	703.844
1179.95	392.188
1183.32	412.031
1186.69	838.344
1190.07	161.781
1193.44	396.469
1196.82	601
1200.19	531.719
1203.57	263.938
1206.94	405.188
1210.32	347.906
1213.69	44.5
1217.07	35.7812
1220.44	640.781
1223.82	367.188
1227.19	29.1562
1230.57	389.781
1233.94	154.656
1237.32	99.1875
1240.69	271.938
1244.07	405.594
1247.44	511.25
1250.82	595.125
1254.19	878.062
1257.57	188.906
1260.94	1254.5
1264.32	746.594
1267.69	782.188
1271.07	990.219
1274.44	696
1277.82	858.812
1281.19	956.031
1284.57	1022.19
1287.94	760.156
1291.32	1107.91
1294.69	468.188
1298.06	933.5
1301.44	505.875
1304.81	143.156
1308.19	793.125
1311.56	213.156
1314.94	0
