Measurement: Raman, 785 nm, unoriented, Raman Data Processed
Mineral: Beidellite
Rruff sample: R070244
Ideal chemistry: (Na,Ca)_0.3_Al_2_(Si,Al)_4_O_10_(OH)_2_nH_2_O
Locality: Fort Sandeman, Pakistan
Source: Michael Scott
Description: Matted fibrous tan crystals (mountain leather)
Raman shift (cm-1)	intensity
118.127	0
121.019	233.197
123.912	72.191
126.805	34.5431
129.697	81.9458
132.59	367.329
135.483	414.798
138.376	213.199
141.268	602.981
144.161	1838.01
147.054	3274.16
149.946	4590.16
152.839	4860.53
155.732	4549.21
158.625	4371.41
161.517	4572.32
164.41	5209.49
167.303	5748.19
170.195	6128.27
173.088	6095.9
175.981	5944.23
178.873	5847.61
181.766	5832.43
184.659	5747.4
187.552	5543.65
190.444	5227.69
193.337	4993.81
196.23	4870.81
199.122	4836.35
202.015	4604.99
204.908	4237.15
207.8	4034.72
210.693	3591.26
213.586	3365.09
216.478	3217.84
219.371	3093.66
222.264	2918.75
225.157	2634.84
228.049	2509.52
230.942	2221.01
233.835	1881.12
236.727	1798.26
239.62	1595.25
242.513	1557.75
245.405	1369.44
248.298	1221.65
251.191	1173.08
254.084	865.943
256.976	889.613
259.869	790.49
262.762	675.275
265.654	721.051
268.547	640.553
271.44	406.66
274.332	272.861
277.225	199.535
280.118	241.602
283.011	125.076
285.903	143.004
288.796	191.82
291.689	35.2695
294.581	139.426
297.474	96.9668
300.367	72.0762
303.26	126.709
306.152	70.082
309.045	15.2754
311.938	74.8945
314.83	22.9824
317.723	86.5332
320.616	170.455
323.508	1.79102
326.401	107.586
329.294	20.9785
332.187	135.789
335.079	8.67773
337.972	92.6348
340.865	22.3984
343.757	42.2305
346.65	62.418
349.543	131.623
352.435	145.33
355.328	162.107
358.221	222.406
361.113	137.356
364.006	136.547
366.899	82.791
369.792	194.707
372.684	348.547
375.577	310.873
378.47	215.215
381.362	276.537
384.255	242.492
387.148	198.891
390.041	191.455
392.933	258.744
395.826	352.022
398.719	423.549
401.611	224.414
404.504	263.543
407.397	158.932
410.289	203.754
413.182	175.211
416.075	290.254
418.967	213.953
421.86	296.883
424.753	147.084
427.646	124.531
430.538	254.828
433.431	163.102
436.324	284.297
439.216	164.91
442.109	156.346
445.002	283.06
447.894	171.213
450.787	222.779
453.68	196.838
456.573	146.375
459.465	177.631
462.358	80.5703
465.251	216.348
468.143	146.852
471.036	164.035
473.929	221.201
476.822	155.107
479.714	116.32
482.607	37.334
485.5	52.1074
488.392	125.805
491.285	100.383
494.178	120.83
497.07	44.4746
499.963	77.7656
502.856	40.2539
505.748	37.875
508.641	62.4473
511.534	147.56
514.427	132.119
517.319	19.5566
520.212	82.0098
523.105	58.4336
525.997	22.3418
528.89	100.422
531.783	80.5117
534.676	50.8828
537.568	140.385
540.461	43.4199
543.354	116.762
546.246	21.5508
549.139	116.123
552.032	3.51758
554.924	71.8457
557.817	100.525
560.71	283.299
563.602	75.5
566.495	113.59
569.388	89.5527
572.281	106.875
575.173	19.3008
578.066	34.3438
580.959	93.3887
583.851	134.539
586.744	136.408
589.637	101.012
592.529	50.9902
595.422	42.2773
598.315	142.209
601.208	96.6641
604.1	60.8262
606.993	20.6738
609.886	113.807
612.778	16.9082
615.671	13.6426
618.564	20.8574
621.457	94.5703
624.349	90.1934
627.242	81.0039
630.135	75.5312
633.027	70.3164
635.92	151.106
638.813	98.5117
641.705	143.31
644.598	129.802
647.491	15.1309
650.384	110.512
653.276	28.6846
656.169	2.6084
659.062	138.57
661.954	83.9697
664.847	18.9609
667.74	174.881
670.632	82.7197
673.525	36.1357
676.418	167.256
679.311	104.075
682.203	65.2822
685.096	123.633
687.989	77.8867
690.881	99.6221
693.774	173.014
696.667	181.627
699.559	116.165
702.452	82.6523
705.345	149.808
708.237	51.5732
711.13	149.303
714.023	213.45
716.916	162.296
719.808	205.056
722.701	192.038
725.594	181.758
728.486	233.796
731.379	129.674
734.272	19.2275
737.164	6.33887
740.057	92.2441
742.95	113.852
745.843	102.098
748.735	49.458
751.628	96.374
754.521	144.266
757.413	44.8369
760.306	80.7822
763.199	75.5449
766.091	62.4609
768.984	163.145
771.877	180.722
774.77	135.823
777.662	91.6318
780.555	30.791
783.448	123.307
786.34	116.664
789.233	77.0762
792.126	65.4131
795.019	41.7685
797.911	104.084
800.804	64.7246
803.697	20.126
806.589	154.083
809.482	71.6152
812.375	48.5137
815.267	69.5186
818.16	159.64
821.053	84.5117
823.946	26.4531
826.838	98.3769
829.731	105.745
832.624	44.4404
835.516	133.941
838.409	159.973
841.302	138.951
844.194	92.6143
847.087	49.0283
849.98	66.2324
852.872	154.16
855.765	61.793
858.658	65.0908
861.551	6.03027
864.443	27.3018
867.336	80.0361
870.229	102.345
873.121	74.1562
876.014	74.6992
878.907	87.7285
881.799	42.4355
884.692	144.614
887.585	86.7393
890.478	50.1885
893.37	60.1406
896.263	69.7266
899.156	59.4736
902.048	11.8896
904.941	22.0605
907.834	95.4522
910.726	67.9404
913.619	76.6816
916.512	72.7988
919.405	119.882
922.297	98.2959
925.19	97.2891
928.083	20.501
930.975	105.897
933.868	43.7344
936.761	28.5615
939.654	104.463
942.546	83.1465
945.439	149.701
948.332	18.9092
951.224	32.377
954.117	40.5908
957.01	1.42871
959.902	97.1777
962.795	166.755
965.688	71.5391
968.581	21.9424
971.473	61.8457
974.366	26.0186
977.259	40.0889
980.151	12.6973
983.044	151.262
985.937	39.9541
988.829	85.4258
991.722	24.5127
994.615	11.169
997.508	123.689
1000.4	114.353
1003.29	50.1172
1006.19	56.0713
1009.08	61.8613
1011.97	78.0029
1014.86	46.9824
1017.76	76.9688
1020.65	78.3057
1023.54	50.7441
1026.43	131.588
1029.33	41.4688
1032.22	8.5752
1035.11	121.731
1038.01	97.4922
1040.9	190.875
1043.79	51.0303
1046.68	73.2129
1049.58	10.2803
1052.47	113.117
1055.36	79.0889
1058.25	86.8809
1061.15	100.659
1064.04	26.1865
1066.93	37.915
1069.83	48.5127
1072.72	83.8906
1075.61	55.6904
1078.5	50.1748
1081.4	132.059
1084.29	92.1475
1087.18	96.7236
1090.07	103.792
1092.97	23.6484
1095.86	71.8731
1098.75	74.707
1101.64	150.483
1104.54	27.5244
1107.43	84.9277
1110.32	30.4736
1113.21	157.336
1116.11	42.5772
1119	110.791
1121.89	99.4033
1124.79	111.06
1127.68	125.097
1130.57	24.6426
1133.46	35.9228
1136.36	93.459
1139.25	94.8125
1142.14	128.825
1145.04	118.162
1147.93	48.126
1150.82	164.214
1153.71	106.948
1156.61	104.41
1159.5	118.269
1162.39	53.1299
1165.28	104.057
1168.18	115.841
1171.07	101.815
1173.96	11.9316
1176.86	44.6641
1179.75	13.7256
1182.64	103.902
1185.53	97.376
1188.43	149.766
1191.32	47.4014
1194.21	133.722
1197.1	68.5791
1200	78.2236
1202.89	33.876
1205.78	35.8809
1208.67	84.292
1211.57	59.3955
1214.46	36.5352
1217.35	51.5596
1220.24	55.919
1223.14	69.2139
1226.03	90.8769
1228.92	8.13867
1231.82	16.8369
1234.71	71.9951
1237.6	100.901
1240.49	8.3623
